# Iron BCC structure
data_Fe_BCC
_cell_length_a                    2.87
_cell_length_b                    2.87
_cell_length_c                    2.87
_cell_angle_alpha                 90
_cell_angle_beta                  90
_cell_angle_gamma                 90
_symmetry_space_group_name_H-M    'I m -3 m'
_symmetry_Int_Tables_number       229

loop_
_atom_site_label
_atom_site_type_symbol
_atom_site_fract_x
_atom_site_fract_y
_atom_site_fract_z
_atom_site_occupancy
Fe1 Fe 0.0 0.0 0.0 1.0

loop_
_symmetry_equiv_pos_as_xyz
x,y,z
-x,-y,z
-x,y,-z
x,-y,-z
z,x,y
z,-x,-y
-z,-x,y
-z,x,-y
y,z,x
-y,z,-x
y,-z,-x
-y,-z,x
y,x,-z
-y,-x,-z
y,-x,z
-y,x,z
x,z,-y
-x,z,y
-x,-z,-y
x,-z,y
z,y,-x
z,-y,x
-z,y,x
-z,-y,-x
-x,-y,-z
x,y,-z
x,-y,z
-x,y,z
-z,-x,-y
-z,x,y
z,x,-y
z,-x,y
-y,-z,-x
y,-z,x
-y,z,x
y,z,-x
-y,-x,z
y,x,z
-y,x,-z
y,-x,-z
-x,-z,y
x,-z,-y
x,z,y
-x,z,-y
-z,-y,x
-z,y,-x
z,-y,-x
z,y,x
x+1/2,y+1/2,z+1/2
-x+1/2,-y+1/2,z+1/2
-x+1/2,y+1/2,-z+1/2
x+1/2,-y+1/2,-z+1/2
z+1/2,x+1/2,y+1/2
z+1/2,-x+1/2,-y+1/2
-z+1/2,-x+1/2,y+1/2
-z+1/2,x+1/2,-y+1/2
y+1/2,z+1/2,x+1/2
-y+1/2,z+1/2,-x+1/2
y+1/2,-z+1/2,-x+1/2
-y+1/2,-z+1/2,x+1/2
y+1/2,x+1/2,-z+1/2
-y+1/2,-x+1/2,-z+1/2
y+1/2,-x+1/2,z+1/2
-y+1/2,x+1/2,z+1/2
x+1/2,z+1/2,-y+1/2
-x+1/2,z+1/2,y+1/2
-x+1/2,-z+1/2,-y+1/2
x+1/2,-z+1/2,y+1/2
z+1/2,y+1/2,-x+1/2
z+1/2,-y+1/2,x+1/2
-z+1/2,y+1/2,x+1/2
-z+1/2,-y+1/2,-x+1/2
-x+1/2,-y+1/2,-z+1/2
x+1/2,y+1/2,-z+1/2
x+1/2,-y+1/2,z+1/2
-x+1/2,y+1/2,z+1/2
-z+1/2,-x+1/2,-y+1/2
-z+1/2,x+1/2,y+1/2
z+1/2,x+1/2,-y+1/2
z+1/2,-x+1/2,y+1/2
-y+1/2,-z+1/2,-x+1/2
y+1/2,-z+1/2,x+1/2
-y+1/2,z+1/2,x+1/2
y+1/2,z+1/2,-x+1/2
-y+1/2,-x+1/2,z+1/2
y+1/2,x+1/2,z+1/2
-y+1/2,x+1/2,-z+1/2
y+1/2,-x+1/2,-z+1/2
-x+1/2,-z+1/2,y+1/2
x+1/2,-z+1/2,-y+1/2
x+1/2,z+1/2,y+1/2
-x+1/2,z+1/2,-y+1/2
-z+1/2,-y+1/2,x+1/2
-z+1/2,y+1/2,-x+1/2
z+1/2,-y+1/2,-x+1/2
z+1/2,y+1/2,x+1/2
