# Sodium Chloride (Rock Salt) structure
data_NaCl
_cell_length_a                    5.64
_cell_length_b                    5.64
_cell_length_c                    5.64
_cell_angle_alpha                 90
_cell_angle_beta                  90
_cell_angle_gamma                 90
_symmetry_space_group_name_H-M    'F m -3 m'
_symmetry_Int_Tables_number       225

loop_
_atom_site_label
_atom_site_type_symbol
_atom_site_fract_x
_atom_site_fract_y
_atom_site_fract_z
_atom_site_occupancy
Na1 Na 0.0 0.0 0.0 1.0
Cl1 Cl 0.5 0.5 0.5 1.0

loop_
_symmetry_equiv_pos_as_xyz
x,y,z
-x,-y,z
-x,y,-z
x,-y,-z
z,x,y
z,-x,-y
-z,-x,y
-z,x,-y
y,z,x
-y,z,-x
y,-z,-x
-y,-z,x
y,x,-z
-y,-x,-z
y,-x,z
-y,x,z
x,z,-y
-x,z,y
-x,-z,-y
x,-z,y
z,y,-x
z,-y,x
-z,y,x
-z,-y,-x
-x,-y,-z
x,y,-z
x,-y,z
-x,y,z
-z,-x,-y
-z,x,y
z,x,-y
z,-x,y
-y,-z,-x
y,-z,x
-y,z,x
y,z,-x
-y,-x,z
y,x,z
-y,x,-z
y,-x,-z
-x,-z,y
x,-z,-y
x,z,y
-x,z,-y
-z,-y,x
-z,y,-x
z,-y,-x
z,y,x
x,y+1/2,z+1/2
-x,-y+1/2,z+1/2
-x,y+1/2,-z+1/2
x,-y+1/2,-z+1/2
z,x+1/2,y+1/2
z,-x+1/2,-y+1/2
-z,-x+1/2,y+1/2
-z,x+1/2,-y+1/2
y,z+1/2,x+1/2
-y,z+1/2,-x+1/2
y,-z+1/2,-x+1/2
-y,-z+1/2,x+1/2
y,x+1/2,-z+1/2
-y,-x+1/2,-z+1/2
y,-x+1/2,z+1/2
-y,x+1/2,z+1/2
x,z+1/2,-y+1/2
-x,z+1/2,y+1/2
-x,-z+1/2,-y+1/2
x,-z+1/2,y+1/2
z,y+1/2,-x+1/2
z,-y+1/2,x+1/2
-z,y+1/2,x+1/2
-z,-y+1/2,-x+1/2
-x,-y+1/2,-z+1/2
x,y+1/2,-z+1/2
x,-y+1/2,z+1/2
-x,y+1/2,z+1/2
-z,-x+1/2,-y+1/2
-z,x+1/2,y+1/2
z,x+1/2,-y+1/2
z,-x+1/2,y+1/2
-y,-z+1/2,-x+1/2
y,-z+1/2,x+1/2
-y,z+1/2,x+1/2
y,z+1/2,-x+1/2
-y,-x+1/2,z+1/2
y,x+1/2,z+1/2
-y,x+1/2,-z+1/2
y,-x+1/2,-z+1/2
-x,-z+1/2,y+1/2
x,-z+1/2,-y+1/2
x,z+1/2,y+1/2
-x,z+1/2,-y+1/2
-z,-y+1/2,x+1/2
-z,y+1/2,-x+1/2
z,-y+1/2,-x+1/2
z,y+1/2,x+1/2
x+1/2,y,z+1/2
-x+1/2,-y,z+1/2
-x+1/2,y,-z+1/2
x+1/2,-y,-z+1/2
z+1/2,x,y+1/2
z+1/2,-x,-y+1/2
-z+1/2,-x,y+1/2
-z+1/2,x,-y+1/2
y+1/2,z,x+1/2
-y+1/2,z,-x+1/2
y+1/2,-z,-x+1/2
-y+1/2,-z,x+1/2
y+1/2,x,-z+1/2
-y+1/2,-x,-z+1/2
y+1/2,-x,z+1/2
-y+1/2,x,z+1/2
x+1/2,z,-y+1/2
-x+1/2,z,y+1/2
-x+1/2,-z,-y+1/2
x+1/2,-z,y+1/2
z+1/2,y,-x+1/2
z+1/2,-y,x+1/2
-z+1/2,y,x+1/2
-z+1/2,-y,-x+1/2
-x+1/2,-y,-z+1/2
x+1/2,y,-z+1/2
x+1/2,-y,z+1/2
-x+1/2,y,z+1/2
-z+1/2,-x,-y+1/2
-z+1/2,x,y+1/2
z+1/2,x,-y+1/2
z+1/2,-x,y+1/2
-y+1/2,-z,-x+1/2
y+1/2,-z,x+1/2
-y+1/2,z,x+1/2
y+1/2,z,-x+1/2
-y+1/2,-x,z+1/2
y+1/2,x,z+1/2
-y+1/2,x,-z+1/2
y+1/2,-x,-z+1/2
-x+1/2,-z,y+1/2
x+1/2,-z,-y+1/2
x+1/2,z,y+1/2
-x+1/2,z,-y+1/2
-z+1/2,-y,x+1/2
-z+1/2,y,-x+1/2
z+1/2,-y,-x+1/2
z+1/2,y,x+1/2
x+1/2,y+1/2,z
-x+1/2,-y+1/2,z
-x+1/2,y+1/2,-z
x+1/2,-y+1/2,-z
z+1/2,x+1/2,y
z+1/2,-x+1/2,-y
-z+1/2,-x+1/2,y
-z+1/2,x+1/2,-y
y+1/2,z+1/2,x
-y+1/2,z+1/2,-x
y+1/2,-z+1/2,-x
-y+1/2,-z+1/2,x
y+1/2,x+1/2,-z
-y+1/2,-x+1/2,-z
y+1/2,-x+1/2,z
-y+1/2,x+1/2,z
x+1/2,z+1/2,-y
-x+1/2,z+1/2,y
-x+1/2,-z+1/2,-y
x+1/2,-z+1/2,y
z+1/2,y+1/2,-x
z+1/2,-y+1/2,x
-z+1/2,y+1/2,x
-z+1/2,-y+1/2,-x
-x+1/2,-y+1/2,-z
x+1/2,y+1/2,-z
x+1/2,-y+1/2,z
-x+1/2,y+1/2,z
-z+1/2,-x+1/2,-y
-z+1/2,x+1/2,y
z+1/2,x+1/2,-y
z+1/2,-x+1/2,y
-y+1/2,-z+1/2,-x
y+1/2,-z+1/2,x
-y+1/2,z+1/2,x
y+1/2,z+1/2,-x
-y+1/2,-x+1/2,z
y+1/2,x+1/2,z
-y+1/2,x+1/2,-z
y+1/2,-x+1/2,-z
-x+1/2,-z+1/2,y
x+1/2,-z+1/2,-y
x+1/2,z+1/2,y
-x+1/2,z+1/2,-y
-z+1/2,-y+1/2,x
-z+1/2,y+1/2,-x
z+1/2,-y+1/2,-x
z+1/2,y+1/2,x
